LAMMPS (22 Jul 2025)
# Enhanced LAMMPS TMD simulation
units metal
atom_style atomic
boundary f f f

# Read initial structure
read_data input.data
Reading data file ...
  orthogonal box = (-8.4276 -9.2826 -4.5725) to (5 4.1431 7.1413)
  reading atoms ...
  4 atoms

# Li-Li interactions using Lennard-Jones potential
pair_style lj/cut 10.0
pair_coeff 1 1 0.05 2.5

# Define atom groups
group mobile id > 0
4 atoms in group mobile

# Energy minimization
minimize 1.0e-4 1.0e-6 1000 10000
Generated 0 of 0 mixed pair_coeff terms from geometric mixing rule
Step          Temp          E_pair         E_mol          TotEng         Press
0   0             -0.19267912     0             -0.19267912    -162.33727
Loop time of 2.1667e-05 on 1 procs for 65 steps with 4 atoms

Minimization stats:
  Stopping criterion = energy tolerance
  Energy initial, next-to-last, final =
  Force two-norm initial, final = 0.15791248 0.0021476288
  Force max component initial, final = 0.071467507 0.0010668444
  Final line search alpha, max atom move = 1 0.0010668444
  Iterations, force evaluations = 65 65

# Initialize velocities
velocity mobile create 300.0 4928459 rot yes dist gaussian

# TMD setup using spring forces towards target positions
# Apply spring forces to guide atoms towards target structure
fix tmd_fix mobile spring/self 10.0

# Temperature control
fix nvt_fix mobile nvt temp 300.0 300.0 100.0

# Output trajectory every 20 steps for smooth animation
dump traj_dump all xyz 20 trajectory.xyz
dump_modify traj_dump element Li

# Thermodynamics output
thermo_style custom step temp press etotal pe ke f_tmd_fix
thermo 100

# Run TMD simulation
run 4000
Generated 0 of 0 mixed pair_coeff terms from geometric mixing rule
Step          Temp          Press          TotEng         PotEng         KinEng       f_tmd_fix
65   300            58.828092     -0.18366077    -0.29999491     0.11633413     0
Averages over the last 21 of 42 rows, steps 2100 to 4065:
Temp Press TotEng PotEng KinEng f_tmd_fix
150.032 39.4876 -0.238861 -0.297041 0.0581795 0.055442
Loop time of 0.00210671 on 1 procs for 4000 steps with 4 atoms

# Cleanup
unfix tmd_fix
unfix nvt_fix
undump traj_dump
