LAMMPS (22 Jul 2025)
# TMD simulation using spring forces toward target
units metal
atom_style atomic
boundary f f f

# Read initial structure
read_data input.data
Reading data file ...
  orthogonal box = (-6 -6 -5) to (6 6 5)
  reading atoms ...
  3 atoms

# Li-Li interactions using Lennard-Jones potential
pair_style lj/cut 10.0
pair_coeff 1 1 0.05 2.5

# Define atom groups
group mobile id > 0
3 atoms in group mobile

# Energy minimization
minimize 1.0e-4 1.0e-6 1000 10000
Generated 0 of 0 mixed pair_coeff terms from geometric mixing rule
Step          Temp          E_pair         E_mol          TotEng         Press
0   0              2.8920725      0              2.8920725      16307.341
Loop time of 4.917e-06 on 1 procs for 6 steps with 3 atoms

Minimization stats:
  Stopping criterion = energy tolerance
  Energy initial, next-to-last, final =
  Force two-norm initial, final = 24.318826 0.00025645692
  Force max component initial, final = 16.535785 0.00020821246
  Final line search alpha, max atom move = 1 0.00020821246
  Iterations, force evaluations = 6 7

# Initialize velocities with very low temperature for stability
velocity mobile create 10.0 4928459 rot yes dist gaussian

# Progressive TMD implementation - gradually increase spring strength
# Read target coordinates and apply spring force for each atom
variable k_start equal 0.5   # Initial weak spring
variable k_mid equal 5.0     # Medium spring strength
variable k_final equal 15.0  # Strong final spring

# Apply spring forces toward target positions for each atom
# We'll use individual fix spring commands for each atom
group atom1 id 1
1 atoms in group atom1
group atom2 id 2
1 atoms in group atom2
group atom3 id 3
1 atoms in group atom3

# Progressive TMD with increasing spring strength
# Output trajectory every 50 steps
dump traj_dump all xyz 50 trajectory.xyz
dump_modify traj_dump element Li

# Thermodynamics output
thermo_style custom step temp press etotal pe ke
thermo 100
timestep 0.001

# Stage 1: Weak springs for initial guidance
fix spring1_1 atom1 spring tether 0.5 0.000000 0.000000 0.000000 0.0
fix spring2_1 atom2 spring tether 0.5 2.500000 0.000000 0.000000 0.0
fix spring3_1 atom3 spring tether 0.5 1.250000 2.165000 0.000000 0.0

fix nvt_1 mobile nvt temp 10.0 10.0 10.0
run 8000
Generated 0 of 0 mixed pair_coeff terms from geometric mixing rule
Step          Temp          Press          TotEng         PotEng         KinEng
6   10             1.7499191     -0.14741476    -0.14999996     0.0025852029
Averages over the last 41 of 82 rows, steps 4100 to 8006:
Temp Press TotEng PotEng KinEng
56.3471 130.461 -0.131786 -0.146353 0.0145669
Loop time of 0.00345142 on 1 procs for 8000 steps with 3 atoms

# Stage 2: Medium springs with cooling
unfix spring1_1
unfix spring2_1
unfix spring3_1
fix spring1_2 atom1 spring tether 5 0.000000 0.000000 0.000000 0.0
fix spring2_2 atom2 spring tether 5 2.500000 0.000000 0.000000 0.0
fix spring3_2 atom3 spring tether 5 1.250000 2.165000 0.000000 0.0

unfix nvt_1
fix nvt_2 mobile nvt temp 10.0 3.0 20.0
run 12000
Generated 0 of 0 mixed pair_coeff terms from geometric mixing rule
Step          Temp          Press          TotEng         PotEng         KinEng
8006   8.1624723      130.78767     -0.14375124    -0.1458614      0.0021101647
Averages over the last 61 of 122 rows, steps 14100 to 20006:
Temp Press TotEng PotEng KinEng
89.0491 577.529 -0.0809593 -0.10398 0.023021
Loop time of 0.00503425 on 1 procs for 12000 steps with 3 atoms

# Stage 3: Strong springs for final convergence
unfix spring1_2
unfix spring2_2
unfix spring3_2
fix spring1_3 atom1 spring tether 15 0.000000 0.000000 0.000000 0.0
fix spring2_3 atom2 spring tether 15 2.500000 0.000000 0.000000 0.0
fix spring3_3 atom3 spring tether 15 1.250000 2.165000 0.000000 0.0

unfix nvt_2
fix nvt_3 mobile nvt temp 3.0 1.0 20.0
run 10000
Generated 0 of 0 mixed pair_coeff terms from geometric mixing rule
Step          Temp          Press          TotEng         PotEng         KinEng
20006   92.774144      496.23071     -0.090993385   -0.11497738     0.023983999
Averages over the last 51 of 102 rows, steps 25100 to 30006:
Temp Press TotEng PotEng KinEng
39.5163 876.773 -0.0556461 -0.0658619 0.0102158
Loop time of 0.00425646 on 1 procs for 10000 steps with 3 atoms

# Cleanup springs
unfix spring1_3
unfix spring2_3
unfix spring3_3

# Final cleanup
unfix nvt_3
undump traj_dump
