LAMMPS (22 Jul 2025)
units metal
atom_style atomic
boundary f f f

read_data input.data
Reading data file ...
  orthogonal box = (0 0 0) to (16.8552 16.8552 16.8552)
  reading atoms ...
  8 atoms

pair_style lj/cut 10.0
pair_coeff 1 1 0.05 2.5

group mobile id > 0
8 atoms in group mobile

# Energy minimization
minimize 1.0e-4 1.0e-6 1000 10000
Generated 0 of 0 mixed pair_coeff terms from geometric mixing rule
Step          Temp          E_pair         E_mol          TotEng         Press
0   0             -0.47630594     0             -0.47630594    -183.635
Loop time of 5.3792e-05 on 1 procs for 108 steps with 8 atoms

Minimization stats:
  Stopping criterion = energy tolerance
  Energy initial, next-to-last, final =
  Force two-norm initial, final = 0.22235822 0.0086879126
  Force max component initial, final = 0.07277238 0.0038997287
  Final line search alpha, max atom move = 1 0.0038997287
  Iterations, force evaluations = 108 108

# Temperature initialization
velocity mobile create 300.0 4928459 rot yes dist gaussian
fix 1 mobile nvt temp 300.0 300.0 100.0

# Output trajectory every 10 steps
dump 1 all xyz 10 trajectory.xyz
dump_modify 1 element Li

# Thermodynamics
thermo_style custom step temp press etotal pe ke
thermo 100

# Run simulation
run 1000
Generated 0 of 0 mixed pair_coeff terms from geometric mixing rule
Step          Temp          Press          TotEng         PotEng         KinEng
108   300            61.792906     -0.66680576    -0.93825206     0.2714463
Averages over the last 6 of 12 rows, steps 700 to 1108:
Temp Press TotEng PotEng KinEng
151.428 -104.441 -0.666762 -0.803777 0.137015
Loop time of 0.000965417 on 1 procs for 1000 steps with 8 atoms
