LAMMPS (22 Jul 2025)
# TMD simulation using spring forces toward target
units metal
atom_style atomic
boundary f f f

# Read initial structure
read_data input.data
Reading data file ...
  orthogonal box = (-6 -6 -5) to (6 6 5)
  reading atoms ...
  3 atoms

# Li-Li interactions using Lennard-Jones potential
pair_style lj/cut 10.0
pair_coeff 1 1 0.05 2.5

# Define atom groups
group mobile id > 0
3 atoms in group mobile

# Energy minimization
minimize 1.0e-4 1.0e-6 1000 10000
Generated 0 of 0 mixed pair_coeff terms from geometric mixing rule
Step          Temp          E_pair         E_mol          TotEng         Press
0   0              2.8920725      0              2.8920725      16307.341
Loop time of 3.917e-06 on 1 procs for 6 steps with 3 atoms

Minimization stats:
  Stopping criterion = energy tolerance
  Energy initial, next-to-last, final =
  Force two-norm initial, final = 24.318826 0.00025645692
  Force max component initial, final = 16.535785 0.00020821246
  Final line search alpha, max atom move = 1 0.00020821246
  Iterations, force evaluations = 6 7

# Initialize velocities with very low temperature for stability
velocity mobile create 10.0 4928459 rot yes dist gaussian

# TMD implementation using individual spring forces
# Read target coordinates and apply spring force for each atom
variable k_spring equal 1.0  # Much weaker spring for gradual transition

# Apply spring forces toward target positions for each atom
# We'll use individual fix spring commands for each atom
group atom1 id 1
1 atoms in group atom1
fix spring1 atom1 spring tether 1 0.000000 0.000000 0.000000 0.0
group atom2 id 2
1 atoms in group atom2
fix spring2 atom2 spring tether 1 2.500000 0.000000 0.000000 0.0
group atom3 id 3
1 atoms in group atom3
fix spring3 atom3 spring tether 1 1.250000 2.165000 0.000000 0.0

# Multi-stage temperature control for gradual equilibration
# Stage 1: Gentle equilibration at low temperature
fix nvt_fix1 mobile nvt temp 10.0 10.0 10.0

# Output trajectory every 50 steps for longer simulation
dump traj_dump all xyz 50 trajectory.xyz
dump_modify traj_dump element Li

# Thermodynamics output more frequently to monitor
thermo_style custom step temp press etotal pe ke
thermo 100

# Stage 1: Short equilibration with weak springs
timestep 0.001
run 5000
Generated 0 of 0 mixed pair_coeff terms from geometric mixing rule
Step          Temp          Press          TotEng         PotEng         KinEng
6   10             1.7499191     -0.14741476    -0.14999996     0.0025852029
Averages over the last 26 of 52 rows, steps 2600 to 5006:
Temp Press TotEng PotEng KinEng
143.08 231.897 -0.103869 -0.140858 0.036989
Loop time of 0.00208079 on 1 procs for 5000 steps with 3 atoms

# Stage 2: Longer TMD with temperature reduction
unfix nvt_fix1
fix nvt_fix2 mobile nvt temp 10.0 1.0 20.0
run 15000
Generated 0 of 0 mixed pair_coeff terms from geometric mixing rule
Step          Temp          Press          TotEng         PotEng         KinEng
5006   95.196791      202.17337     -0.11779538    -0.14240568     0.024610302
Averages over the last 76 of 152 rows, steps 12600 to 20006:
Temp Press TotEng PotEng KinEng
30.1344 211.155 -0.133062 -0.140852 0.00779035
Loop time of 0.00608379 on 1 procs for 15000 steps with 3 atoms

# Stage 3: Final equilibration at very low temperature
unfix nvt_fix2
fix nvt_fix3 mobile nvt temp 1.0 1.0 20.0
run 10000
Generated 0 of 0 mixed pair_coeff terms from geometric mixing rule
Step          Temp          Press          TotEng         PotEng         KinEng
20006   36.433161      202.61746     -0.13215979    -0.1415785      0.0094187114
Averages over the last 51 of 102 rows, steps 25100 to 30006:
Temp Press TotEng PotEng KinEng
9.19614 207.262 -0.138476 -0.140853 0.00237739
Loop time of 0.00407175 on 1 procs for 10000 steps with 3 atoms

# Cleanup springs
unfix spring1
unfix spring2
unfix spring3

# Final cleanup
unfix nvt_fix3
undump traj_dump
