LAMMPS (22 Jul 2025)
# TMD simulation using spring forces toward target
units metal
atom_style atomic
boundary f f f

# Read initial structure
read_data input.data
Reading data file ...
  orthogonal box = (-6.928 -6.7542 -6.928) to (6.921 5.94 6.921)
  reading atoms ...
  5 atoms

# Li-Li interactions using Lennard-Jones potential
pair_style lj/cut 10.0
pair_coeff 1 1 0.05 2.5

# Define atom groups
group mobile id > 0
5 atoms in group mobile

# Energy minimization
minimize 1.0e-4 1.0e-6 1000 10000
Generated 0 of 0 mixed pair_coeff terms from geometric mixing rule
Step          Temp          E_pair         E_mol          TotEng         Press
0   0             -0.35506446     0             -0.35506446    -92.519446
Loop time of 1.1708e-05 on 1 procs for 29 steps with 5 atoms

Minimization stats:
  Stopping criterion = energy tolerance
  Energy initial, next-to-last, final =
  Force two-norm initial, final = 0.22679946 0.0039303908
  Force max component initial, final = 0.094647437 0.0018513266
  Final line search alpha, max atom move = 1 0.0018513266
  Iterations, force evaluations = 29 29

# Initialize velocities with very low temperature for stability
velocity mobile create 10.0 4928459 rot yes dist gaussian

# Progressive TMD implementation - gradually increase spring strength
# Read target coordinates and apply spring force for each atom
variable k_start equal 0.5   # Initial weak spring
variable k_mid equal 5.0     # Medium spring strength
variable k_final equal 15.0  # Strong final spring

# Apply spring forces toward target positions for each atom
# We'll use individual fix spring commands for each atom
group atom1 id 1
1 atoms in group atom1
group atom2 id 2
1 atoms in group atom2
group atom3 id 3
1 atoms in group atom3
group atom4 id 4
1 atoms in group atom4
group atom5 id 5
1 atoms in group atom5

# Progressive TMD with increasing spring strength
# Output trajectory every 50 steps
dump traj_dump all xyz 50 trajectory.xyz
dump_modify traj_dump element Li

# Thermodynamics output
thermo_style custom step temp press etotal pe ke
thermo 100
timestep 0.001

# Stage 1: Weak springs for initial guidance
fix spring1_1 atom1 spring tether 0.5 1.807000 0.000000 -1.809000 0.0
fix spring2_1 atom2 spring tether 0.5 -0.518000 1.535000 -0.518000 0.0
fix spring3_1 atom3 spring tether 0.5 1.039000 0.000000 1.039000 0.0
fix spring4_1 atom4 spring tether 0.5 -0.518000 -1.535000 -0.518000 0.0
fix spring5_1 atom5 spring tether 0.5 -1.809000 0.000000 1.807000 0.0

fix nvt_1 mobile nvt temp 10.0 10.0 10.0
run 8000
Generated 0 of 0 mixed pair_coeff terms from geometric mixing rule
Step          Temp          Press          TotEng         PotEng         KinEng
29   10             2.286387      -0.44999385    -0.45516425     0.0051704058
Averages over the last 41 of 82 rows, steps 4100 to 8029:
Temp Press TotEng PotEng KinEng
61.8504 -63.1508 -0.398912 -0.430891 0.0319792
Loop time of 0.00404204 on 1 procs for 8000 steps with 5 atoms

# Stage 2: Medium springs with cooling
unfix spring1_1
unfix spring2_1
unfix spring3_1
unfix spring4_1
unfix spring5_1
fix spring1_2 atom1 spring tether 5 1.807000 0.000000 -1.809000 0.0
fix spring2_2 atom2 spring tether 5 -0.518000 1.535000 -0.518000 0.0
fix spring3_2 atom3 spring tether 5 1.039000 0.000000 1.039000 0.0
fix spring4_2 atom4 spring tether 5 -0.518000 -1.535000 -0.518000 0.0
fix spring5_2 atom5 spring tether 5 -1.809000 0.000000 1.807000 0.0

unfix nvt_1
fix nvt_2 mobile nvt temp 10.0 3.0 20.0
run 12000
Generated 0 of 0 mixed pair_coeff terms from geometric mixing rule
Step          Temp          Press          TotEng         PotEng         KinEng
8029   22.923171     -72.056231     -0.42502555    -0.43687776     0.01185221
Averages over the last 61 of 122 rows, steps 14100 to 20029:
Temp Press TotEng PotEng KinEng
77.5885 -98.4371 -0.360463 -0.400579 0.0401164
Loop time of 0.00594567 on 1 procs for 12000 steps with 5 atoms

# Stage 3: Strong springs for final convergence
unfix spring1_2
unfix spring2_2
unfix spring3_2
unfix spring4_2
unfix spring5_2
fix spring1_3 atom1 spring tether 15 1.807000 0.000000 -1.809000 0.0
fix spring2_3 atom2 spring tether 15 -0.518000 1.535000 -0.518000 0.0
fix spring3_3 atom3 spring tether 15 1.039000 0.000000 1.039000 0.0
fix spring4_3 atom4 spring tether 15 -0.518000 -1.535000 -0.518000 0.0
fix spring5_3 atom5 spring tether 15 -1.809000 0.000000 1.807000 0.0

unfix nvt_2
fix nvt_3 mobile nvt temp 3.0 1.0 20.0
run 10000
Generated 0 of 0 mixed pair_coeff terms from geometric mixing rule
Step          Temp          Press          TotEng         PotEng         KinEng
20029   30.952013     -82.295146     -0.40405396    -0.42005741     0.016003447
Averages over the last 51 of 102 rows, steps 25100 to 30029:
Temp Press TotEng PotEng KinEng
46.2074 -103.378 -0.372095 -0.395986 0.0238911
Loop time of 0.00488917 on 1 procs for 10000 steps with 5 atoms

# Cleanup springs
unfix spring1_3
unfix spring2_3
unfix spring3_3
unfix spring4_3
unfix spring5_3

# Final cleanup
unfix nvt_3
undump traj_dump
