LAMMPS (22 Jul 2025)
# TMD simulation using spring forces toward target
units metal
atom_style atomic
boundary f f f

# Read initial structure
read_data input.data
Reading data file ...
  orthogonal box = (-6 -6 -5) to (6 6 5)
  reading atoms ...
  3 atoms

# Li-Li interactions using Lennard-Jones potential
pair_style lj/cut 10.0
pair_coeff 1 1 0.05 2.5

# Define atom groups
group mobile id > 0
3 atoms in group mobile

# Energy minimization
minimize 1.0e-4 1.0e-6 1000 10000
Generated 0 of 0 mixed pair_coeff terms from geometric mixing rule
Step          Temp          E_pair         E_mol          TotEng         Press
0   0              2.8920725      0              2.8920725      16307.341
Loop time of 4.75e-06 on 1 procs for 6 steps with 3 atoms

Minimization stats:
  Stopping criterion = energy tolerance
  Energy initial, next-to-last, final =
  Force two-norm initial, final = 24.318826 0.00025645692
  Force max component initial, final = 16.535785 0.00020821246
  Final line search alpha, max atom move = 1 0.00020821246
  Iterations, force evaluations = 6 7

# Initialize velocities with low temperature for stability
velocity mobile create 50.0 4928459 rot yes dist gaussian

# TMD implementation using individual spring forces
# Read target coordinates and apply spring force for each atom
variable k_spring equal 5.0  # Lower spring constant for stability

# Apply spring forces toward target positions for each atom
# We'll use individual fix spring commands for each atom
group atom1 id 1
1 atoms in group atom1
fix spring1 atom1 spring tether 5 0.000000 0.000000 0.000000 0.0
group atom2 id 2
1 atoms in group atom2
fix spring2 atom2 spring tether 5 2.500000 0.000000 0.000000 0.0
group atom3 id 3
1 atoms in group atom3
fix spring3 atom3 spring tether 5 1.250000 2.165000 0.000000 0.0

# Temperature control with very low temperature for stability
fix nvt_fix mobile nvt temp 50.0 10.0 50.0

# Output trajectory every 20 steps for smooth animation
dump traj_dump all xyz 20 trajectory.xyz
dump_modify traj_dump element Li

# Thermodynamics output
thermo_style custom step temp press etotal pe ke
thermo 50

# Run simulation with smaller timestep and more careful parameters
timestep 0.0005
run 4000
Generated 0 of 0 mixed pair_coeff terms from geometric mixing rule
Step          Temp          Press          TotEng         PotEng         KinEng
6   50             9.4201993     -0.13707395    -0.14999996     0.012926015
Averages over the last 41 of 82 rows, steps 2050 to 4006:
Temp Press TotEng PotEng KinEng
25206.3 5442.52 6.42578 -0.0905667 6.51634
Loop time of 0.00205033 on 1 procs for 4000 steps with 3 atoms

# Cleanup springs
unfix spring1
unfix spring2
unfix spring3
unfix nvt_fix
undump traj_dump
