LAMMPS (22 Jul 2025)
# Enhanced LAMMPS TMD simulation
units metal
atom_style atomic
boundary f f f

# Read initial structure
read_data input.data
Reading data file ...
  orthogonal box = (-8.4276 -9.2826 -7.9982) to (6.7138 7.5707 7.1413)
  reading atoms ...
  7 atoms

# Li-Li interactions using Lennard-Jones potential
pair_style lj/cut 10.0
pair_coeff 1 1 0.05 2.5

# Define atom groups
group mobile id > 0
7 atoms in group mobile

# Energy minimization
minimize 1.0e-4 1.0e-6 1000 10000
Generated 0 of 0 mixed pair_coeff terms from geometric mixing rule
Step          Temp          E_pair         E_mol          TotEng         Press
0   0             -0.42117695     0             -0.42117695    -36.596253
Loop time of 8.0666e-05 on 1 procs for 205 steps with 7 atoms

Minimization stats:
  Stopping criterion = energy tolerance
  Energy initial, next-to-last, final =
  Force two-norm initial, final = 0.64140419 0.0074648783
  Force max component initial, final = 0.35941953 0.0032982001
  Final line search alpha, max atom move = 1 0.0032982001
  Iterations, force evaluations = 205 205

# Initialize velocities
velocity mobile create 300.0 4928459 rot yes dist gaussian

# TMD setup using spring forces towards target positions
# Apply spring forces to guide atoms towards target structure
fix tmd_fix mobile spring/self 10.0

# Temperature control
fix nvt_fix mobile nvt temp 300.0 300.0 100.0

# Output trajectory every 20 steps for smooth animation
dump traj_dump all xyz 20 trajectory.xyz
dump_modify traj_dump element Li

# Thermodynamics output
thermo_style custom step temp press etotal pe ke f_tmd_fix
thermo 100

# Run TMD simulation
run 4000
Generated 0 of 0 mixed pair_coeff terms from geometric mixing rule
Step          Temp          Press          TotEng         PotEng         KinEng       f_tmd_fix
205   300            64.039047     -0.54371808    -0.77638634     0.23266826     0
Averages over the last 21 of 42 rows, steps 2300 to 4205:
Temp Press TotEng PotEng KinEng f_tmd_fix
143.772 49.971 -0.656404 -0.767908 0.111504 0.113198
Loop time of 0.0034725 on 1 procs for 4000 steps with 7 atoms

# Cleanup
unfix tmd_fix
unfix nvt_fix
undump traj_dump
