LAMMPS (22 Jul 2025)
units metal
atom_style atomic
boundary f f f

read_data input.data
Reading data file ...
  orthogonal box = (0 0 0) to (20 20 20)
  reading atoms ...
  5 atoms

# Check atom count
variable natoms equal count(all)
Number of atoms read: 5

pair_style lj/cut 10.0
pair_coeff 1 1 0.05 2.5

group mobile id > 0
5 atoms in group mobile

# Energy minimization
minimize 1.0e-4 1.0e-6 1000 10000
Generated 0 of 0 mixed pair_coeff terms from geometric mixing rule
Step          Temp          E_pair         E_mol          TotEng         Press
0   0              58.09783       0              58.09783       49475.062
Loop time of 1.075e-05 on 1 procs for 19 steps with 5 atoms

Minimization stats:
  Stopping criterion = energy tolerance
  Energy initial, next-to-last, final =
  Force two-norm initial, final = 151.30685 0.0031715541
  Force max component initial, final = 61.770758 0.0011094464
  Final line search alpha, max atom move = 1 0.0011094464
  Iterations, force evaluations = 19 19

# Temperature initialization
velocity mobile create 300.0 4928459 rot yes dist gaussian
fix 1 mobile nvt temp 300.0 300.0 100.0

# Output trajectory every 10 steps
dump 1 all xyz 10 trajectory.xyz
dump_modify 1 element Li

# Thermodynamics
thermo_style custom step temp press etotal pe ke
thermo 100

# Run simulation
run 1000
Generated 0 of 0 mixed pair_coeff terms from geometric mixing rule
Step          Temp          Press          TotEng         PotEng         KinEng
19   300            22.575141     -0.049818932   -0.20493111     0.15511217
Averages over the last 6 of 12 rows, steps 600 to 1019:
Temp Press TotEng PotEng KinEng
169.579 10.0514 -0.0498376 -0.137517 0.0876792
Loop time of 0.000666042 on 1 procs for 1000 steps with 5 atoms
