LAMMPS (22 Jul 2025)
units metal
atom_style atomic
boundary f f f

read_data input.data
Reading data file ...
  orthogonal box = (0 0 0) to (20 20 20)
  reading atoms ...
  5 atoms

pair_style lj/cut 10.0
pair_coeff 1 1 0.05 2.5

group mobile id > 0
5 atoms in group mobile

# Energy minimization
minimize 1.0e-4 1.0e-6 1000 10000
Generated 0 of 0 mixed pair_coeff terms from geometric mixing rule
Step          Temp          E_pair         E_mol          TotEng         Press
0   0             -0.016550446    0             -0.016550446   -6.5304779
Loop time of 4.6125e-05 on 1 procs for 129 steps with 5 atoms

Minimization stats:
  Stopping criterion = energy tolerance
  Energy initial, next-to-last, final =
  Force two-norm initial, final = 0.010945432 0.0046740038
  Force max component initial, final = 0.0040997314 0.0038309416
  Final line search alpha, max atom move = 1 0.0038309416
  Iterations, force evaluations = 129 129

# Temperature initialization
velocity mobile create 300.0 4928459 rot yes dist gaussian
fix 1 mobile nvt temp 300.0 300.0 100.0

# Output trajectory every 10 steps
dump 1 all xyz 10 trajectory.xyz
dump_modify 1 element Li

# Thermodynamics
thermo_style custom step temp press etotal pe ke
thermo 100

# Run simulation
run 1000
Generated 0 of 0 mixed pair_coeff terms from geometric mixing rule
Step          Temp          Press          TotEng         PotEng         KinEng
129   300            19.01965      -0.10215927    -0.25727144     0.15511217
Averages over the last 6 of 12 rows, steps 700 to 1129:
Temp Press TotEng PotEng KinEng
198.267 -0.00269858 -0.102133 -0.204645 0.102512
Loop time of 0.000755333 on 1 procs for 1000 steps with 5 atoms
